*SPEF "IEEE 1481-1998"
*DESIGN "DLX"
*DATE "Tue Oct 15 23:33:14 2024"
*VENDOR "Cadence Design Systems, Inc."
*PROGRAM "Innovus"
*VERSION "20.11-s130_1"
*DESIGN_FLOW "PIN_CAP NONE" "NAME_SCOPE LOCAL"
*DIVIDER /
*DELIMITER :
*BUS_DELIMITER []
*T_UNIT 1 NS
*C_UNIT 1 PF
*R_UNIT 1 OHM
*L_UNIT 1 HENRY

// MMMC spef file for corner 'standard'

*NAME_MAP

*1 CU_I/FE_RN_1_0
*2 DATAPATH_I/EX_STAGE/EXU_ALU/FE_OFN2_n89
*3 Clk
*4 Rst
*5 DRAM_LMD[31]
*6 DRAM_LMD[30]
*7 DRAM_LMD[29]
*8 DRAM_LMD[28]
*9 DRAM_LMD[27]
*10 DRAM_LMD[26]
*11 DRAM_LMD[25]
*12 DRAM_LMD[24]
*13 DRAM_LMD[23]
*14 DRAM_LMD[22]
*15 DRAM_LMD[21]
*16 DRAM_LMD[20]
*17 DRAM_LMD[19]
*18 DRAM_LMD[18]
*19 DRAM_LMD[17]
*20 DRAM_LMD[16]
*21 DRAM_LMD[15]
*22 DRAM_LMD[14]
*23 DRAM_LMD[13]
*24 DRAM_LMD[12]
*25 DRAM_LMD[11]
*26 DRAM_LMD[10]
*27 DRAM_LMD[9]
*28 DRAM_LMD[8]
*29 DRAM_LMD[7]
*30 DRAM_LMD[6]
*31 DRAM_LMD[5]
*32 DRAM_LMD[4]
*33 DRAM_LMD[3]
*34 DRAM_LMD[2]
*35 DRAM_LMD[1]
*36 DRAM_LMD[0]
*37 IRAM_IR[31]
*38 IRAM_IR[30]
*39 IRAM_IR[29]
*40 IRAM_IR[28]
*41 IRAM_IR[27]
*42 IRAM_IR[26]
*43 IRAM_IR[25]
*44 IRAM_IR[24]
*45 IRAM_IR[23]
*46 IRAM_IR[22]
*47 IRAM_IR[21]
*48 IRAM_IR[20]
*49 IRAM_IR[19]
*50 IRAM_IR[18]
*51 IRAM_IR[17]
*52 IRAM_IR[16]
*53 IRAM_IR[15]
*54 IRAM_IR[14]
*55 IRAM_IR[13]
*56 IRAM_IR[12]
*57 IRAM_IR[11]
*58 IRAM_IR[10]
*59 IRAM_IR[9]
*60 IRAM_IR[8]
*61 IRAM_IR[7]
*62 IRAM_IR[6]
*63 IRAM_IR[5]
*64 IRAM_IR[4]
*65 IRAM_IR[3]
*66 IRAM_IR[2]
*67 IRAM_IR[1]
*68 IRAM_IR[0]
*69 J_EN_i
*70 RF_WE_i
*71 ALU_OPCODE_i[0]
*72 ALU_OPCODE_i[1]
*73 ALU_OPCODE_i[2]
*74 ALU_OPCODE_i[3]
*75 DATAPATH_I/pc4_s[31]
*76 DATAPATH_I/pc4_s[30]
*77 DATAPATH_I/pc4_s[29]
*78 DATAPATH_I/pc4_s[28]
*79 DATAPATH_I/pc4_s[27]
*80 DATAPATH_I/pc4_s[26]
*81 DATAPATH_I/pc4_s[25]
*82 DATAPATH_I/pc4_s[24]
*83 DATAPATH_I/pc4_s[23]
*84 DATAPATH_I/pc4_s[22]
*85 DATAPATH_I/pc4_s[21]
*86 DATAPATH_I/pc4_s[20]
*87 DATAPATH_I/pc4_s[19]
*88 DATAPATH_I/pc4_s[18]
*89 DATAPATH_I/pc4_s[17]
*90 DATAPATH_I/pc4_s[16]
*91 DATAPATH_I/pc4_s[15]
*92 DATAPATH_I/pc4_s[14]
*93 DATAPATH_I/pc4_s[13]
*94 DATAPATH_I/pc4_s[12]
*95 DATAPATH_I/pc4_s[11]
*96 DATAPATH_I/pc4_s[10]
*97 DATAPATH_I/pc4_s[9]
*98 DATAPATH_I/pc4_s[8]
*99 DATAPATH_I/pc4_s[7]
*100 DATAPATH_I/pc4_s[6]
*101 DATAPATH_I/pc4_s[5]
*102 DATAPATH_I/pc4_s[4]
*103 DATAPATH_I/pc4_s[3]
*104 DATAPATH_I/pc4_s[2]
*105 DATAPATH_I/F_STAGE/ADD/add_17/n1
*106 DATAPATH_I/F_STAGE/ADD/add_17/n2
*107 DATAPATH_I/F_STAGE/ADD/add_17/n3
*108 DATAPATH_I/F_STAGE/ADD/add_17/n4
*109 DATAPATH_I/F_STAGE/ADD/add_17/n5
*110 DATAPATH_I/F_STAGE/ADD/add_17/n6
*111 DATAPATH_I/F_STAGE/ADD/add_17/n7
*112 DATAPATH_I/F_STAGE/ADD/add_17/n8
*113 DATAPATH_I/F_STAGE/ADD/add_17/n9
*114 DATAPATH_I/F_STAGE/ADD/add_17/n10
*115 DATAPATH_I/F_STAGE/ADD/add_17/n11
*116 DATAPATH_I/F_STAGE/ADD/add_17/n12
*117 DATAPATH_I/F_STAGE/ADD/add_17/n13
*118 DATAPATH_I/F_STAGE/ADD/add_17/n14
*119 DATAPATH_I/F_STAGE/ADD/add_17/n15
*120 DATAPATH_I/F_STAGE/ADD/add_17/n16
*121 DATAPATH_I/F_STAGE/ADD/add_17/n17
*122 DATAPATH_I/F_STAGE/ADD/add_17/n18
*123 DATAPATH_I/F_STAGE/ADD/add_17/n19
*124 DATAPATH_I/F_STAGE/ADD/add_17/n20
*125 DATAPATH_I/F_STAGE/ADD/add_17/n21
*126 DATAPATH_I/F_STAGE/ADD/add_17/n22
*127 DATAPATH_I/F_STAGE/ADD/add_17/n23
*128 DATAPATH_I/F_STAGE/ADD/add_17/n25
*129 DATAPATH_I/F_STAGE/ADD/add_17/n26
*130 DATAPATH_I/F_STAGE/ADD/add_17/n27
*131 DATAPATH_I/F_STAGE/ADD/add_17/n28
*132 DATAPATH_I/F_STAGE/ADD/add_17/n57
*133 DATAPATH_I/D_STAGE/JTA[31]
*134 DATAPATH_I/D_STAGE/JTA[30]
*135 DATAPATH_I/D_STAGE/JTA[29]
*136 DATAPATH_I/D_STAGE/JTA[28]
*137 DATAPATH_I/D_STAGE/JTA[27]
*138 DATAPATH_I/D_STAGE/JTA[26]
*139 DATAPATH_I/D_STAGE/JTA[25]
*140 DATAPATH_I/D_STAGE/JTA[24]
*141 DATAPATH_I/D_STAGE/JTA[23]
*142 DATAPATH_I/D_STAGE/JTA[22]
*143 DATAPATH_I/D_STAGE/JTA[21]
*144 DATAPATH_I/D_STAGE/JTA[20]
*145 DATAPATH_I/D_STAGE/JTA[19]
*146 DATAPATH_I/D_STAGE/JTA[18]
*147 DATAPATH_I/D_STAGE/JTA[17]
*148 DATAPATH_I/D_STAGE/JTA[16]
*149 DATAPATH_I/D_STAGE/JTA[15]
*150 DATAPATH_I/D_STAGE/JTA[14]
*151 DATAPATH_I/D_STAGE/JTA[13]
*152 DATAPATH_I/D_STAGE/JTA[12]
*153 DATAPATH_I/D_STAGE/JTA[11]
*154 DATAPATH_I/D_STAGE/JTA[10]
*155 DATAPATH_I/D_STAGE/JTA[9]
*156 DATAPATH_I/D_STAGE/JTA[8]
*157 DATAPATH_I/D_STAGE/JTA[7]
*158 DATAPATH_I/D_STAGE/JTA[6]
*159 DATAPATH_I/D_STAGE/JTA[5]
*160 DATAPATH_I/D_STAGE/JTA[4]
*161 DATAPATH_I/D_STAGE/JTA[3]
*162 DATAPATH_I/D_STAGE/JTA[2]
*163 DATAPATH_I/D_STAGE/JTA[1]
*164 DATAPATH_I/D_STAGE/JTA[0]
*165 DATAPATH_I/D_STAGE/RF_instance/n1862
*166 DATAPATH_I/D_STAGE/RF_instance/n1863
*167 DATAPATH_I/D_STAGE/RF_instance/n1864
*168 DATAPATH_I/D_STAGE/RF_instance/n1865
*169 DATAPATH_I/D_STAGE/RF_instance/n1866
*170 DATAPATH_I/D_STAGE/RF_instance/n1867
*171 DATAPATH_I/D_STAGE/RF_instance/n1868
*172 DATAPATH_I/D_STAGE/RF_instance/n1869
*173 DATAPATH_I/D_STAGE/RF_instance/n1870
*174 DATAPATH_I/D_STAGE/RF_instance/n1871
*175 DATAPATH_I/D_STAGE/RF_instance/n29921
*176 DATAPATH_I/D_STAGE/RF_instance/n29922
*177 DATAPATH_I/D_STAGE/RF_instance/n29923
*178 DATAPATH_I/D_STAGE/RF_instance/n29924
*179 DATAPATH_I/D_STAGE/RF_instance/n29925
*180 DATAPATH_I/D_STAGE/RF_instance/n29929
*181 DATAPATH_I/D_STAGE/RF_instance/n29937
*182 DATAPATH_I/D_STAGE/RF_instance/n29938
*183 DATAPATH_I/D_STAGE/RF_instance/n29939
*184 DATAPATH_I/D_STAGE/RF_instance/n29940
*185 DATAPATH_I/D_STAGE/RF_instance/n29941
*186 DATAPATH_I/D_STAGE/RF_instance/n29942
*187 DATAPATH_I/D_STAGE/RF_instance/n29943
*188 DATAPATH_I/D_STAGE/RF_instance/n29944
*189 DATAPATH_I/D_STAGE/ADD_instance/add_17/n1
*190 DATAPATH_I/D_STAGE/ADD_instance/add_17/carry[31]
*191 DATAPATH_I/D_STAGE/ADD_instance/add_17/carry[30]
*192 DATAPATH_I/D_STAGE/ADD_instance/add_17/carry[29]
*193 DATAPATH_I/D_STAGE/ADD_instance/add_17/carry[28]
*194 DATAPATH_I/D_STAGE/ADD_instance/add_17/carry[27]
*195 DATAPATH_I/D_STAGE/ADD_instance/add_17/carry[26]
*196 DATAPATH_I/D_STAGE/ADD_instance/add_17/carry[25]
*197 DATAPATH_I/D_STAGE/ADD_instance/add_17/carry[24]
*198 DATAPATH_I/D_STAGE/ADD_instance/add_17/carry[23]
*199 DATAPATH_I/D_STAGE/ADD_instance/add_17/carry[22]
*200 DATAPATH_I/D_STAGE/ADD_instance/add_17/carry[21]
*201 DATAPATH_I/D_STAGE/ADD_instance/add_17/carry[20]
*202 DATAPATH_I/D_STAGE/ADD_instance/add_17/carry[19]
*203 DATAPATH_I/D_STAGE/ADD_instance/add_17/carry[18]
*204 DATAPATH_I/D_STAGE/ADD_instance/add_17/carry[17]
*205 DATAPATH_I/D_STAGE/ADD_instance/add_17/carry[16]
*206 DATAPATH_I/D_STAGE/ADD_instance/add_17/carry[15]
*207 DATAPATH_I/D_STAGE/ADD_instance/add_17/carry[14]
*208 DATAPATH_I/D_STAGE/ADD_instance/add_17/carry[13]
*209 DATAPATH_I/D_STAGE/ADD_instance/add_17/carry[12]
*210 DATAPATH_I/D_STAGE/ADD_instance/add_17/carry[11]
*211 DATAPATH_I/D_STAGE/ADD_instance/add_17/carry[10]
*212 DATAPATH_I/D_STAGE/ADD_instance/add_17/carry[9]
*213 DATAPATH_I/D_STAGE/ADD_instance/add_17/carry[8]
*214 DATAPATH_I/D_STAGE/ADD_instance/add_17/carry[7]
*215 DATAPATH_I/D_STAGE/ADD_instance/add_17/carry[6]
*216 DATAPATH_I/D_STAGE/ADD_instance/add_17/carry[5]
*217 DATAPATH_I/D_STAGE/ADD_instance/add_17/carry[4]
*218 DATAPATH_I/D_STAGE/ADD_instance/add_17/carry[3]
*219 DATAPATH_I/D_STAGE/ADD_instance/add_17/carry[2]
*220 DATAPATH_I/EX_STAGE/EXU_ALU/N301
*221 DATAPATH_I/EX_STAGE/EXU_ALU/N302
*222 DATAPATH_I/EX_STAGE/EXU_ALU/n83
*223 DATAPATH_I/EX_STAGE/EXU_ALU/n84
*224 DATAPATH_I/EX_STAGE/EXU_ALU/n88
*225 DATAPATH_I/EX_STAGE/EXU_ALU/n89
*226 DATAPATH_I/EX_STAGE/EXU_ALU/n125
*227 DATAPATH_I/EX_STAGE/EXU_ALU/n126
*228 DATAPATH_I/EX_STAGE/EXU_ALU/n127
*229 DATAPATH_I/EX_STAGE/EXU_ALU/n246
*230 DATAPATH_I/EX_STAGE/EXU_ALU/n247
*231 DATAPATH_I/EX_STAGE/EXU_ALU/n248
*232 DATAPATH_I/EX_STAGE/EXU_ALU/n249
*233 DATAPATH_I/EX_STAGE/EXU_ALU/n250
*234 DATAPATH_I/EX_STAGE/EXU_ALU/n251
*235 DATAPATH_I/EX_STAGE/EXU_ALU/n252
*236 DATAPATH_I/EX_STAGE/EXU_ALU/n253
*237 DATAPATH_I/EX_STAGE/EXU_ALU/n254
*238 DATAPATH_I/EX_STAGE/EXU_ALU/n255
*239 DATAPATH_I/EX_STAGE/EXU_ALU/n256
*240 DATAPATH_I/EX_STAGE/EXU_ALU/n257
*241 DATAPATH_I/EX_STAGE/EXU_ALU/n258
*242 DATAPATH_I/EX_STAGE/EXU_ALU/n259
*243 DATAPATH_I/EX_STAGE/EXU_ALU/n260
*244 DATAPATH_I/EX_STAGE/EXU_ALU/n261
*245 DATAPATH_I/EX_STAGE/EXU_ALU/n262
*246 DATAPATH_I/EX_STAGE/EXU_ALU/n2644
*247 DATAPATH_I/EX_STAGE/EXU_ALU/n2646
*248 DATAPATH_I/EX_STAGE/EXU_ALU/n2648
*249 DATAPATH_I/EX_STAGE/EXU_ALU/n2649
*250 DATAPATH_I/EX_STAGE/EXU_ALU/n2650
*251 DATAPATH_I/EX_STAGE/EXU_ALU/n2652
*252 DATAPATH_I/EX_STAGE/EXU_ALU/n2654
*253 DATAPATH_I/EX_STAGE/EXU_ALU/n2663
*254 DATAPATH_I/EX_STAGE/EXU_ALU/n2664
*255 DATAPATH_I/EX_STAGE/EXU_ALU/n2665
*256 DATAPATH_I/EX_STAGE/EXU_ALU/n2666
*257 DATAPATH_I/EX_STAGE/EXU_ALU/n2667
*258 DATAPATH_I/EX_STAGE/EXU_ALU/n2668
*259 DATAPATH_I/EX_STAGE/EXU_ALU/n2669
*260 DATAPATH_I/EX_STAGE/EXU_ALU/n2670
*261 DATAPATH_I/EX_STAGE/EXU_ALU/n2672
*262 DATAPATH_I/EX_STAGE/EXU_ALU/n2674
*263 DATAPATH_I/EX_STAGE/EXU_ALU/n2678
*264 DATAPATH_I/EX_STAGE/EXU_ALU/n2680
*265 DATAPATH_I/EX_STAGE/EXU_ALU/n2681
*266 DATAPATH_I/EX_STAGE/EXU_ALU/n2682
*267 DATAPATH_I/EX_STAGE/EXU_ALU/n2683
*268 DATAPATH_I/EX_STAGE/EXU_ALU/n2684
*269 DATAPATH_I/EX_STAGE/EXU_ALU/n2685
*270 DATAPATH_I/EX_STAGE/EXU_ALU/n2686
*271 DATAPATH_I/EX_STAGE/EXU_ALU/n2687
*272 DATAPATH_I/EX_STAGE/EXU_ALU/n2688
*273 DATAPATH_I/EX_STAGE/EXU_ALU/n2689
*274 DATAPATH_I/EX_STAGE/EXU_ALU/n2698
*275 DATAPATH_I/EX_STAGE/EXU_ALU/n2700
*276 DATAPATH_I/EX_STAGE/EXU_ALU/n2702
*277 DATAPATH_I/EX_STAGE/EXU_ALU/n2703
*278 DATAPATH_I/EX_STAGE/EXU_ALU/n2704
*279 DATAPATH_I/EX_STAGE/EXU_ALU/n2706
*280 DATAPATH_I/EX_STAGE/EXU_ALU/n2708
*281 DATAPATH_I/EX_STAGE/EXU_ALU/n2709
*282 DATAPATH_I/EX_STAGE/EXU_ALU/n2710
*283 DATAPATH_I/EX_STAGE/EXU_ALU/n2711
*284 DATAPATH_I/EX_STAGE/EXU_ALU/n2712
*285 DATAPATH_I/EX_STAGE/EXU_ALU/n2713
*286 DATAPATH_I/EX_STAGE/EXU_ALU/tmp_sub[31]
*287 DATAPATH_I/EX_STAGE/EXU_ALU/tmp_sub[30]
*288 DATAPATH_I/EX_STAGE/EXU_ALU/tmp_sub[29]
*289 DATAPATH_I/EX_STAGE/EXU_ALU/tmp_sub[28]
*290 DATAPATH_I/EX_STAGE/EXU_ALU/tmp_sub[27]
*291 DATAPATH_I/EX_STAGE/EXU_ALU/tmp_sub[26]
*292 DATAPATH_I/EX_STAGE/EXU_ALU/tmp_sub[25]
*293 DATAPATH_I/EX_STAGE/EXU_ALU/tmp_sub[24]
*294 DATAPATH_I/EX_STAGE/EXU_ALU/tmp_sub[23]
*295 DATAPATH_I/EX_STAGE/EXU_ALU/tmp_sub[22]
*296 DATAPATH_I/EX_STAGE/EXU_ALU/tmp_sub[21]
*297 DATAPATH_I/EX_STAGE/EXU_ALU/tmp_sub[20]
*298 DATAPATH_I/EX_STAGE/EXU_ALU/tmp_sub[19]
*299 DATAPATH_I/EX_STAGE/EXU_ALU/tmp_sub[18]
*300 DATAPATH_I/EX_STAGE/EXU_ALU/tmp_sub[17]
*301 DATAPATH_I/EX_STAGE/EXU_ALU/tmp_sub[16]
*302 DATAPATH_I/EX_STAGE/EXU_ALU/tmp_sub[15]
*303 DATAPATH_I/EX_STAGE/EXU_ALU/tmp_sub[14]
*304 DATAPATH_I/EX_STAGE/EXU_ALU/tmp_sub[13]
*305 DATAPATH_I/EX_STAGE/EXU_ALU/tmp_sub[12]
*306 DATAPATH_I/EX_STAGE/EXU_ALU/tmp_sub[11]
*307 DATAPATH_I/EX_STAGE/EXU_ALU/tmp_sub[10]
*308 DATAPATH_I/EX_STAGE/EXU_ALU/tmp_sub[9]
*309 DATAPATH_I/EX_STAGE/EXU_ALU/tmp_sub[8]
*310 DATAPATH_I/EX_STAGE/EXU_ALU/tmp_sub[7]
*311 DATAPATH_I/EX_STAGE/EXU_ALU/tmp_sub[6]
*312 DATAPATH_I/EX_STAGE/EXU_ALU/tmp_sub[5]
*313 DATAPATH_I/EX_STAGE/EXU_ALU/tmp_sub[4]
*314 DATAPATH_I/EX_STAGE/EXU_ALU/tmp_sub[3]
*315 DATAPATH_I/EX_STAGE/EXU_ALU/tmp_sub[2]
*316 DATAPATH_I/EX_STAGE/EXU_ALU/tmp_sub[1]
*317 DATAPATH_I/EX_STAGE/EXU_ALU/tmp_sub[0]
*318 DATAPATH_I/EX_STAGE/EXU_ALU/sra_42/n61
*319 DATAPATH_I/EX_STAGE/EXU_ALU/sra_42/n64
*320 DATAPATH_I/EX_STAGE/EXU_ALU/sra_42/n66
*321 DATAPATH_I/EX_STAGE/EXU_ALU/sra_42/n68
*322 DATAPATH_I/EX_STAGE/EXU_ALU/sra_42/n71
*323 DATAPATH_I/EX_STAGE/EXU_ALU/sra_42/n72
*324 DATAPATH_I/EX_STAGE/EXU_ALU/sra_42/n85
*325 DATAPATH_I/EX_STAGE/EXU_ALU/sra_42/n88
*326 DATAPATH_I/EX_STAGE/EXU_ALU/sra_42/n94
*327 DATAPATH_I/EX_STAGE/EXU_ALU/sra_42/n95
*328 DATAPATH_I/EX_STAGE/EXU_ALU/sra_42/n96
*329 DATAPATH_I/EX_STAGE/EXU_ALU/sra_42/n97
*330 DATAPATH_I/EX_STAGE/EXU_ALU/sra_42/n98
*331 DATAPATH_I/EX_STAGE/EXU_ALU/sra_42/n106
*332 DATAPATH_I/EX_STAGE/EXU_ALU/sra_42/n112
*333 DATAPATH_I/EX_STAGE/EXU_ALU/sra_42/n114
*334 DATAPATH_I/EX_STAGE/EXU_ALU/sra_42/n115
*335 DATAPATH_I/EX_STAGE/EXU_ALU/sra_42/n116
*336 DATAPATH_I/EX_STAGE/EXU_ALU/sra_42/n122
*337 DATAPATH_I/EX_STAGE/EXU_ALU/sra_42/n130
*338 DATAPATH_I/EX_STAGE/EXU_ALU/sra_42/n133
*339 DATAPATH_I/EX_STAGE/EXU_ALU/sra_42/n136
*340 DATAPATH_I/EX_STAGE/EXU_ALU/sra_42/n139
*341 DATAPATH_I/EX_STAGE/EXU_ALU/sra_42/n148
*342 DATAPATH_I/EX_STAGE/EXU_ALU/sra_42/n149
*343 DATAPATH_I/EX_STAGE/EXU_ALU/sra_42/n156
*344 DATAPATH_I/EX_STAGE/EXU_ALU/sra_42/n160
*345 DATAPATH_I/EX_STAGE/EXU_ALU/sra_42/n162
*346 DATAPATH_I/EX_STAGE/EXU_ALU/sra_42/n163
*347 DATAPATH_I/EX_STAGE/EXU_ALU/sra_42/n164
*348 DATAPATH_I/EX_STAGE/EXU_ALU/sra_42/n165
*349 DATAPATH_I/EX_STAGE/EXU_ALU/sra_42/n166
*350 DATAPATH_I/EX_STAGE/EXU_ALU/sra_42/n167
*351 DATAPATH_I/EX_STAGE/EXU_ALU/sra_42/n168
*352 DATAPATH_I/EX_STAGE/EXU_ALU/sra_42/n169
*353 DATAPATH_I/EX_STAGE/EXU_ALU/sra_42/n170
*354 DATAPATH_I/EX_STAGE/EXU_ALU/sra_42/n171
*355 DATAPATH_I/EX_STAGE/EXU_ALU/sra_42/n172
*356 DATAPATH_I/EX_STAGE/EXU_ALU/sra_42/n173
*357 DATAPATH_I/EX_STAGE/EXU_ALU/sra_42/n174
*358 DATAPATH_I/EX_STAGE/EXU_ALU/sra_42/n1318
*359 DATAPATH_I/EX_STAGE/EXU_ALU/sra_42/n1319
*360 DATAPATH_I/EX_STAGE/EXU_ALU/sra_42/n1320
*361 DATAPATH_I/EX_STAGE/EXU_ALU/sra_42/n1321
*362 DATAPATH_I/EX_STAGE/EXU_ALU/sra_42/n1322
*363 DATAPATH_I/EX_STAGE/EXU_ALU/sra_42/n1323
*364 DATAPATH_I/EX_STAGE/EXU_ALU/sra_42/n1326
*365 DATAPATH_I/EX_STAGE/EXU_ALU/sra_42/n1327
*366 DATAPATH_I/EX_STAGE/EXU_ALU/sra_42/n1328
*367 DATAPATH_I/EX_STAGE/EXU_ALU/sra_42/n1329
*368 DATAPATH_I/EX_STAGE/EXU_ALU/sra_42/n1330
*369 DATAPATH_I/EX_STAGE/EXU_ALU/sra_42/n1331
*370 DATAPATH_I/EX_STAGE/EXU_ALU/sra_42/n1332
*371 DATAPATH_I/EX_STAGE/EXU_ALU/sra_42/n1333
*372 DATAPATH_I/EX_STAGE/EXU_ALU/sra_42/n1335
*373 DATAPATH_I/EX_STAGE/EXU_ALU/sra_42/n1337
*374 DATAPATH_I/EX_STAGE/EXU_ALU/sra_42/n1339
*375 DATAPATH_I/EX_STAGE/EXU_ALU/sra_42/n1340
*376 DATAPATH_I/EX_STAGE/EXU_ALU/sra_42/n1341
*377 DATAPATH_I/EX_STAGE/EXU_ALU/sra_42/n1342
*378 DATAPATH_I/EX_STAGE/EXU_ALU/sra_42/n1344
*379 DATAPATH_I/EX_STAGE/EXU_ALU/sra_42/n1346
*380 DATAPATH_I/EX_STAGE/EXU_ALU/sra_42/n1350
*381 DATAPATH_I/EX_STAGE/EXU_ALU/sra_42/n1352
*382 DATAPATH_I/EX_STAGE/EXU_ALU/sra_42/n1353
*383 DATAPATH_I/EX_STAGE/EXU_ALU/sra_42/n1354
*384 DATAPATH_I/EX_STAGE/EXU_ALU/sra_42/n1357
*385 DATAPATH_I/EX_STAGE/EXU_ALU/sra_42/n1360
*386 DATAPATH_I/EX_STAGE/EXU_ALU/sra_42/n1361
*387 DATAPATH_I/EX_STAGE/EXU_ALU/sra_42/n1367
*388 DATAPATH_I/EX_STAGE/EXU_ALU/sra_42/n1369
*389 DATAPATH_I/EX_STAGE/EXU_ALU/sra_42/n1372
*390 DATAPATH_I/EX_STAGE/EXU_ALU/sra_42/n1373
*391 DATAPATH_I/EX_STAGE/EXU_ALU/sra_42/n1374
*392 DATAPATH_I/EX_STAGE/EXU_ALU/sra_42/n1375
*393 DATAPATH_I/EX_STAGE/EXU_ALU/sra_42/n1377
*394 DATAPATH_I/EX_STAGE/EXU_ALU/sll_41/ML_int\[1\]\[31\]
*395 DATAPATH_I/EX_STAGE/EXU_ALU/sll_41/ML_int\[1\]\[30\]
*396 DATAPATH_I/EX_STAGE/EXU_ALU/sll_41/ML_int\[1\]\[29\]
*397 DATAPATH_I/EX_STAGE/EXU_ALU/sll_41/ML_int\[1\]\[28\]
*398 DATAPATH_I/EX_STAGE/EXU_ALU/sll_41/ML_int\[1\]\[27\]
*399 DATAPATH_I/EX_STAGE/EXU_ALU/sll_41/ML_int\[1\]\[26\]
*400 DATAPATH_I/EX_STAGE/EXU_ALU/sll_41/ML_int\[1\]\[25\]
*401 DATAPATH_I/EX_STAGE/EXU_ALU/sll_41/ML_int\[1\]\[24\]
*402 DATAPATH_I/EX_STAGE/EXU_ALU/sll_41/ML_int\[1\]\[23\]
*403 DATAPATH_I/EX_STAGE/EXU_ALU/sll_41/ML_int\[1\]\[22\]
*404 DATAPATH_I/EX_STAGE/EXU_ALU/sll_41/ML_int\[1\]\[21\]
*405 DATAPATH_I/EX_STAGE/EXU_ALU/sll_41/ML_int\[1\]\[20\]
*406 DATAPATH_I/EX_STAGE/EXU_ALU/sll_41/ML_int\[1\]\[19\]
*407 DATAPATH_I/EX_STAGE/EXU_ALU/sll_41/ML_int\[1\]\[18\]
*408 DATAPATH_I/EX_STAGE/EXU_ALU/sll_41/ML_int\[1\]\[17\]
*409 DATAPATH_I/EX_STAGE/EXU_ALU/sll_41/ML_int\[1\]\[16\]
*410 DATAPATH_I/EX_STAGE/EXU_ALU/sll_41/ML_int\[1\]\[15\]
*411 DATAPATH_I/EX_STAGE/EXU_ALU/sll_41/ML_int\[1\]\[14\]
*412 DATAPATH_I/EX_STAGE/EXU_ALU/sll_41/ML_int\[1\]\[13\]
*413 DATAPATH_I/EX_STAGE/EXU_ALU/sll_41/ML_int\[1\]\[12\]
*414 DATAPATH_I/EX_STAGE/EXU_ALU/sll_41/ML_int\[1\]\[11\]
*415 DATAPATH_I/EX_STAGE/EXU_ALU/sll_41/ML_int\[1\]\[10\]
*416 DATAPATH_I/EX_STAGE/EXU_ALU/sll_41/ML_int\[1\]\[9\]
*417 DATAPATH_I/EX_STAGE/EXU_ALU/sll_41/ML_int\[1\]\[8\]
*418 DATAPATH_I/EX_STAGE/EXU_ALU/sll_41/ML_int\[1\]\[7\]
*419 DATAPATH_I/EX_STAGE/EXU_ALU/sll_41/ML_int\[1\]\[6\]
*420 DATAPATH_I/EX_STAGE/EXU_ALU/sll_41/ML_int\[1\]\[5\]
*421 DATAPATH_I/EX_STAGE/EXU_ALU/sll_41/ML_int\[1\]\[4\]
*422 DATAPATH_I/EX_STAGE/EXU_ALU/sll_41/ML_int\[1\]\[3\]
*423 DATAPATH_I/EX_STAGE/EXU_ALU/sll_41/ML_int\[1\]\[2\]
*424 DATAPATH_I/EX_STAGE/EXU_ALU/sll_41/ML_int\[1\]\[1\]
*425 DATAPATH_I/EX_STAGE/EXU_ALU/sll_41/ML_int\[1\]\[0\]
*426 DATAPATH_I/EX_STAGE/EXU_ALU/sll_41/ML_int\[2\]\[31\]
*427 DATAPATH_I/EX_STAGE/EXU_ALU/sll_41/ML_int\[2\]\[30\]
*428 DATAPATH_I/EX_STAGE/EXU_ALU/sll_41/ML_int\[2\]\[29\]
*429 DATAPATH_I/EX_STAGE/EXU_ALU/sll_41/ML_int\[2\]\[28\]
*430 DATAPATH_I/EX_STAGE/EXU_ALU/sll_41/ML_int\[2\]\[27\]
*431 DATAPATH_I/EX_STAGE/EXU_ALU/sll_41/ML_int\[2\]\[26\]
*432 DATAPATH_I/EX_STAGE/EXU_ALU/sll_41/ML_int\[2\]\[25\]
*433 DATAPATH_I/EX_STAGE/EXU_ALU/sll_41/ML_int\[2\]\[24\]
*434 DATAPATH_I/EX_STAGE/EXU_ALU/sll_41/ML_int\[2\]\[23\]
*435 DATAPATH_I/EX_STAGE/EXU_ALU/sll_41/ML_int\[2\]\[22\]
*436 DATAPATH_I/EX_STAGE/EXU_ALU/sll_41/ML_int\[2\]\[21\]
*437 DATAPATH_I/EX_STAGE/EXU_ALU/sll_41/ML_int\[2\]\[20\]
*438 DATAPATH_I/EX_STAGE/EXU_ALU/sll_41/ML_int\[2\]\[19\]
*439 DATAPATH_I/EX_STAGE/EXU_ALU/sll_41/ML_int\[2\]\[18\]
*440 DATAPATH_I/EX_STAGE/EXU_ALU/sll_41/ML_int\[2\]\[17\]
*441 DATAPATH_I/EX_STAGE/EXU_ALU/sll_41/ML_int\[2\]\[16\]
*442 DATAPATH_I/EX_STAGE/EXU_ALU/sll_41/ML_int\[2\]\[15\]
*443 DATAPATH_I/EX_STAGE/EXU_ALU/sll_41/ML_int\[2\]\[14\]
*444 DATAPATH_I/EX_STAGE/EXU_ALU/sll_41/ML_int\[2\]\[13\]
*445 DATAPATH_I/EX_STAGE/EXU_ALU/sll_41/ML_int\[2\]\[12\]
*446 DATAPATH_I/EX_STAGE/EXU_ALU/sll_41/ML_int\[2\]\[11\]
*447 DATAPATH_I/EX_STAGE/EXU_ALU/sll_41/ML_int\[2\]\[10\]
*448 DATAPATH_I/EX_STAGE/EXU_ALU/sll_41/ML_int\[2\]\[9\]
*449 DATAPATH_I/EX_STAGE/EXU_ALU/sll_41/ML_int\[2\]\[8\]
*450 DATAPATH_I/EX_STAGE/EXU_ALU/sll_41/ML_int\[2\]\[7\]
*451 DATAPATH_I/EX_STAGE/EXU_ALU/sll_41/ML_int\[2\]\[6\]
*452 DATAPATH_I/EX_STAGE/EXU_ALU/sll_41/ML_int\[2\]\[5\]
*453 DATAPATH_I/EX_STAGE/EXU_ALU/sll_41/ML_int\[2\]\[4\]
*454 DATAPATH_I/EX_STAGE/EXU_ALU/sll_41/ML_int\[2\]\[3\]
*455 DATAPATH_I/EX_STAGE/EXU_ALU/sll_41/ML_int\[2\]\[2\]
*456 DATAPATH_I/EX_STAGE/EXU_ALU/sll_41/ML_int\[2\]\[1\]
*457 DATAPATH_I/EX_STAGE/EXU_ALU/sll_41/ML_int\[3\]\[31\]
*458 DATAPATH_I/EX_STAGE/EXU_ALU/sll_41/ML_int\[3\]\[30\]
*459 DATAPATH_I/EX_STAGE/EXU_ALU/sll_41/ML_int\[3\]\[29\]
*460 DATAPATH_I/EX_STAGE/EXU_ALU/sll_41/ML_int\[3\]\[28\]
*461 DATAPATH_I/EX_STAGE/EXU_ALU/sll_41/ML_int\[3\]\[23\]
*462 DATAPATH_I/EX_STAGE/EXU_ALU/sll_41/ML_int\[3\]\[22\]
*463 DATAPATH_I/EX_STAGE/EXU_ALU/sll_41/ML_int\[3\]\[21\]
*464 DATAPATH_I/EX_STAGE/EXU_ALU/sll_41/ML_int\[3\]\[20\]
*465 DATAPATH_I/EX_STAGE/EXU_ALU/sll_41/ML_int\[3\]\[19\]
*466 DATAPATH_I/EX_STAGE/EXU_ALU/sll_41/ML_int\[3\]\[15\]
*467 DATAPATH_I/EX_STAGE/EXU_ALU/sll_41/ML_int\[3\]\[12\]
*468 DATAPATH_I/EX_STAGE/EXU_ALU/sll_41/ML_int\[3\]\[11\]
*469 DATAPATH_I/EX_STAGE/EXU_ALU/sll_41/ML_int\[3\]\[9\]
*470 DATAPATH_I/EX_STAGE/EXU_ALU/sll_41/ML_int\[3\]\[7\]
*471 DATAPATH_I/EX_STAGE/EXU_ALU/sll_41/ML_int\[3\]\[1\]
*472 DATAPATH_I/EX_STAGE/EXU_ALU/sll_41/ML_int\[4\]\[31\]
*473 DATAPATH_I/EX_STAGE/EXU_ALU/sll_41/ML_int\[4\]\[15\]
*474 DATAPATH_I/EX_STAGE/EXU_ALU/sll_41/n513
*475 DATAPATH_I/EX_STAGE/EXU_ALU/sll_41/n514
*476 DATAPATH_I/EX_STAGE/EXU_ALU/sll_41/n516
*477 DATAPATH_I/EX_STAGE/EXU_ALU/sll_41/n517
*478 DATAPATH_I/EX_STAGE/EXU_ALU/sll_41/n520
*479 DATAPATH_I/EX_STAGE/EXU_ALU/sll_41/n521
*480 DATAPATH_I/EX_STAGE/EXU_ALU/sll_41/n524
*481 DATAPATH_I/EX_STAGE/EXU_ALU/sll_41/n525
*482 DATAPATH_I/EX_STAGE/EXU_ALU/sll_41/n526
*483 DATAPATH_I/EX_STAGE/EXU_ALU/sll_41/n527
*484 DATAPATH_I/EX_STAGE/EXU_ALU/sll_41/n529
*485 DATAPATH_I/EX_STAGE/EXU_ALU/add_35/n2
*486 DATAPATH_I/EX_STAGE/EXU_ALU/add_35/carry[31]
*487 DATAPATH_I/EX_STAGE/EXU_ALU/add_35/carry[30]
*488 DATAPATH_I/EX_STAGE/EXU_ALU/add_35/carry[29]
*489 DATAPATH_I/EX_STAGE/EXU_ALU/add_35/carry[28]
*490 DATAPATH_I/EX_STAGE/EXU_ALU/add_35/carry[27]
*491 DATAPATH_I/EX_STAGE/EXU_ALU/add_35/carry[26]
*492 DATAPATH_I/EX_STAGE/EXU_ALU/add_35/carry[25]
*493 DATAPATH_I/EX_STAGE/EXU_ALU/add_35/carry[24]
*494 DATAPATH_I/EX_STAGE/EXU_ALU/add_35/carry[23]
*495 DATAPATH_I/EX_STAGE/EXU_ALU/add_35/carry[22]
*496 DATAPATH_I/EX_STAGE/EXU_ALU/add_35/carry[21]
*497 DATAPATH_I/EX_STAGE/EXU_ALU/add_35/carry[20]
*498 DATAPATH_I/EX_STAGE/EXU_ALU/add_35/carry[19]
*499 DATAPATH_I/EX_STAGE/EXU_ALU/add_35/carry[18]
*500 DATAPATH_I/EX_STAGE/EXU_ALU/add_35/carry[17]
*501 DATAPATH_I/EX_STAGE/EXU_ALU/add_35/carry[16]
*502 DATAPATH_I/EX_STAGE/EXU_ALU/add_35/carry[15]
*503 DATAPATH_I/EX_STAGE/EXU_ALU/add_35/carry[14]
*504 DATAPATH_I/EX_STAGE/EXU_ALU/add_35/carry[13]
*505 DATAPATH_I/EX_STAGE/EXU_ALU/add_35/carry[12]
*506 DATAPATH_I/EX_STAGE/EXU_ALU/add_35/carry[11]
*507 DATAPATH_I/EX_STAGE/EXU_ALU/add_35/carry[10]
*508 DATAPATH_I/EX_STAGE/EXU_ALU/add_35/carry[9]
*509 DATAPATH_I/EX_STAGE/EXU_ALU/add_35/carry[8]
*510 DATAPATH_I/EX_STAGE/EXU_ALU/add_35/carry[7]
*511 DATAPATH_I/EX_STAGE/EXU_ALU/add_35/carry[6]
*512 DATAPATH_I/EX_STAGE/EXU_ALU/add_35/carry[5]
*513 DATAPATH_I/EX_STAGE/EXU_ALU/add_35/carry[4]
*514 DATAPATH_I/EX_STAGE/EXU_ALU/add_35/carry[3]
*515 DATAPATH_I/EX_STAGE/EXU_ALU/add_35/carry[2]
*516 DATAPATH_I/EX_STAGE/EXU_ALU/r62/n644
*517 DATAPATH_I/EX_STAGE/EXU_ALU/r62/n645
*518 DATAPATH_I/EX_STAGE/EXU_ALU/r62/n646
*519 DATAPATH_I/EX_STAGE/EXU_ALU/r62/n647
*520 DATAPATH_I/EX_STAGE/EXU_ALU/r62/n648
*521 DATAPATH_I/EX_STAGE/EXU_ALU/r62/n649
*522 DATAPATH_I/EX_STAGE/EXU_ALU/r62/n650
*523 DATAPATH_I/EX_STAGE/EXU_ALU/r62/n651
*524 DATAPATH_I/EX_STAGE/EXU_ALU/r62/n652
*525 DATAPATH_I/EX_STAGE/EXU_ALU/r62/n653
*526 DATAPATH_I/EX_STAGE/EXU_ALU/r62/n654
*527 DATAPATH_I/EX_STAGE/EXU_ALU/r62/n655
*528 DATAPATH_I/EX_STAGE/EXU_ALU/r62/n656
*529 DATAPATH_I/EX_STAGE/EXU_ALU/r62/n657
*530 DATAPATH_I/EX_STAGE/EXU_ALU/r62/n658
*531 DATAPATH_I/EX_STAGE/EXU_ALU/r62/n659
*532 DATAPATH_I/EX_STAGE/EXU_ALU/r62/n660
*533 DATAPATH_I/EX_STAGE/EXU_ALU/r62/n661
*534 DATAPATH_I/EX_STAGE/EXU_ALU/r62/n662
*535 DATAPATH_I/EX_STAGE/EXU_ALU/r62/n663
*536 DATAPATH_I/EX_STAGE/EXU_ALU/r62/n664
*537 DATAPATH_I/EX_STAGE/EXU_ALU/r62/n665
*538 DATAPATH_I/EX_STAGE/EXU_ALU/r62/n666
*539 DATAPATH_I/EX_STAGE/EXU_ALU/r62/n667
*540 DATAPATH_I/EX_STAGE/EXU_ALU/r62/n668
*541 DATAPATH_I/EX_STAGE/EXU_ALU/r62/n669
*542 DATAPATH_I/EX_STAGE/EXU_ALU/r62/n670
*543 DATAPATH_I/EX_STAGE/EXU_ALU/r62/n671
*544 DATAPATH_I/EX_STAGE/EXU_ALU/r62/n672
*545 DATAPATH_I/EX_STAGE/EXU_ALU/r62/n673
*546 DATAPATH_I/EX_STAGE/EXU_ALU/r62/n674
*547 DATAPATH_I/EX_STAGE/EXU_ALU/r62/n675
*548 DATAPATH_I/EX_STAGE/EXU_ALU/r62/carry[31]
*549 DATAPATH_I/EX_STAGE/EXU_ALU/r62/carry[30]
*550 DATAPATH_I/EX_STAGE/EXU_ALU/r62/carry[29]
*551 DATAPATH_I/EX_STAGE/EXU_ALU/r62/carry[28]
*552 DATAPATH_I/EX_STAGE/EXU_ALU/r62/carry[27]
*553 DATAPATH_I/EX_STAGE/EXU_ALU/r62/carry[26]
*554 DATAPATH_I/EX_STAGE/EXU_ALU/r62/carry[25]
*555 DATAPATH_I/EX_STAGE/EXU_ALU/r62/carry[24]
*556 DATAPATH_I/EX_STAGE/EXU_ALU/r62/carry[23]
*557 DATAPATH_I/EX_STAGE/EXU_ALU/r62/carry[22]
*558 DATAPATH_I/EX_STAGE/EXU_ALU/r62/carry[21]
*559 DATAPATH_I/EX_STAGE/EXU_ALU/r62/carry[20]
*560 DATAPATH_I/EX_STAGE/EXU_ALU/r62/carry[19]
*561 DATAPATH_I/EX_STAGE/EXU_ALU/r62/carry[18]
*562 DATAPATH_I/EX_STAGE/EXU_ALU/r62/carry[17]
*563 DATAPATH_I/EX_STAGE/EXU_ALU/r62/carry[16]
*564 DATAPATH_I/EX_STAGE/EXU_ALU/r62/carry[15]
*565 DATAPATH_I/EX_STAGE/EXU_ALU/r62/carry[14]
*566 DATAPATH_I/EX_STAGE/EXU_ALU/r62/carry[13]
*567 DATAPATH_I/EX_STAGE/EXU_ALU/r62/carry[12]
*568 DATAPATH_I/EX_STAGE/EXU_ALU/r62/carry[11]
*569 DATAPATH_I/EX_STAGE/EXU_ALU/r62/carry[10]
*570 DATAPATH_I/EX_STAGE/EXU_ALU/r62/carry[9]
*571 DATAPATH_I/EX_STAGE/EXU_ALU/r62/carry[8]
*572 DATAPATH_I/EX_STAGE/EXU_ALU/r62/carry[7]
*573 DATAPATH_I/EX_STAGE/EXU_ALU/r62/carry[6]
*574 DATAPATH_I/EX_STAGE/EXU_ALU/r62/carry[5]
*575 DATAPATH_I/EX_STAGE/EXU_ALU/r62/carry[4]
*576 DATAPATH_I/EX_STAGE/EXU_ALU/r62/carry[3]
*577 DATAPATH_I/EX_STAGE/EXU_ALU/r62/carry[2]
*578 DATAPATH_I/EX_STAGE/EXU_ALU/r62/carry[1]
*579 DATAPATH_I/EX_STAGE/EXU_ALU/mult_37/ab\[15\]\[0\]
*580 DATAPATH_I/EX_STAGE/EXU_ALU/mult_37/ab\[14\]\[1\]
*581 DATAPATH_I/EX_STAGE/EXU_ALU/mult_37/ab\[14\]\[0\]
*582 DATAPATH_I/EX_STAGE/EXU_ALU/mult_37/ab\[13\]\[2\]
*583 DATAPATH_I/EX_STAGE/EXU_ALU/mult_37/ab\[13\]\[1\]
*584 DATAPATH_I/EX_STAGE/EXU_ALU/mult_37/ab\[13\]\[0\]
*585 DATAPATH_I/EX_STAGE/EXU_ALU/mult_37/ab\[12\]\[3\]
*586 DATAPATH_I/EX_STAGE/EXU_ALU/mult_37/ab\[12\]\[2\]
*587 DATAPATH_I/EX_STAGE/EXU_ALU/mult_37/ab\[12\]\[1\]
*588 DATAPATH_I/EX_STAGE/EXU_ALU/mult_37/ab\[12\]\[0\]
*589 DATAPATH_I/EX_STAGE/EXU_ALU/mult_37/ab\[11\]\[4\]
*590 DATAPATH_I/EX_STAGE/EXU_ALU/mult_37/ab\[11\]\[3\]
*591 DATAPATH_I/EX_STAGE/EXU_ALU/mult_37/ab\[11\]\[2\]
*592 DATAPATH_I/EX_STAGE/EXU_ALU/mult_37/ab\[11\]\[1\]
*593 DATAPATH_I/EX_STAGE/EXU_ALU/mult_37/ab\[11\]\[0\]
*594 DATAPATH_I/EX_STAGE/EXU_ALU/mult_37/ab\[10\]\[5\]
*595 DATAPATH_I/EX_STAGE/EXU_ALU/mult_37/ab\[10\]\[4\]
*596 DATAPATH_I/EX_STAGE/EXU_ALU/mult_37/ab\[10\]\[3\]
*597 DATAPATH_I/EX_STAGE/EXU_ALU/mult_37/ab\[10\]\[2\]
*598 DATAPATH_I/EX_STAGE/EXU_ALU/mult_37/ab\[10\]\[1\]
*599 DATAPATH_I/EX_STAGE/EXU_ALU/mult_37/ab\[10\]\[0\]
*600 DATAPATH_I/EX_STAGE/EXU_ALU/mult_37/ab\[9\]\[6\]
*601 DATAPATH_I/EX_STAGE/EXU_ALU/mult_37/ab\[9\]\[5\]
*602 DATAPATH_I/EX_STAGE/EXU_ALU/mult_37/ab\[9\]\[4\]
*603 DATAPATH_I/EX_STAGE/EXU_ALU/mult_37/ab\[9\]\[3\]
*604 DATAPATH_I/EX_STAGE/EXU_ALU/mult_37/ab\[9\]\[2\]
*605 DATAPATH_I/EX_STAGE/EXU_ALU/mult_37/ab\[9\]\[1\]
*606 DATAPATH_I/EX_STAGE/EXU_ALU/mult_37/ab\[9\]\[0\]
*607 DATAPATH_I/EX_STAGE/EXU_ALU/mult_37/ab\[8\]\[7\]
*608 DATAPATH_I/EX_STAGE/EXU_ALU/mult_37/ab\[8\]\[6\]
*609 DATAPATH_I/EX_STAGE/EXU_ALU/mult_37/ab\[8\]\[5\]
*610 DATAPATH_I/EX_STAGE/EXU_ALU/mult_37/ab\[8\]\[4\]
*611 DATAPATH_I/EX_STAGE/EXU_ALU/mult_37/ab\[8\]\[3\]
*612 DATAPATH_I/EX_STAGE/EXU_ALU/mult_37/ab\[8\]\[2\]
*613 DATAPATH_I/EX_STAGE/EXU_ALU/mult_37/ab\[8\]\[1\]
*614 DATAPATH_I/EX_STAGE/EXU_ALU/mult_37/ab\[8\]\[0\]
*615 DATAPATH_I/EX_STAGE/EXU_ALU/mult_37/ab\[7\]\[8\]
*616 DATAPATH_I/EX_STAGE/EXU_ALU/mult_37/ab\[7\]\[7\]
*617 DATAPATH_I/EX_STAGE/EXU_ALU/mult_37/ab\[7\]\[6\]
*618 DATAPATH_I/EX_STAGE/EXU_ALU/mult_37/ab\[7\]\[5\]
*619 DATAPATH_I/EX_STAGE/EXU_ALU/mult_37/ab\[7\]\[4\]
*620 DATAPATH_I/EX_STAGE/EXU_ALU/mult_37/ab\[7\]\[3\]
*621 DATAPATH_I/EX_STAGE/EXU_ALU/mult_37/ab\[7\]\[2\]
*622 DATAPATH_I/EX_STAGE/EXU_ALU/mult_37/ab\[7\]\[1\]
*623 DATAPATH_I/EX_STAGE/EXU_ALU/mult_37/ab\[7\]\[0\]
*624 DATAPATH_I/EX_STAGE/EXU_ALU/mult_37/ab\[6\]\[9\]
*625 DATAPATH_I/EX_STAGE/EXU_ALU/mult_37/ab\[6\]\[8\]
*626 DATAPATH_I/EX_STAGE/EXU_ALU/mult_37/ab\[6\]\[7\]
*627 DATAPATH_I/EX_STAGE/EXU_ALU/mult_37/ab\[6\]\[6\]
*628 DATAPATH_I/EX_STAGE/EXU_ALU/mult_37/ab\[6\]\[5\]
*629 DATAPATH_I/EX_STAGE/EXU_ALU/mult_37/ab\[6\]\[4\]
*630 DATAPATH_I/EX_STAGE/EXU_ALU/mult_37/ab\[6\]\[3\]
*631 DATAPATH_I/EX_STAGE/EXU_ALU/mult_37/ab\[6\]\[2\]
*632 DATAPATH_I/EX_STAGE/EXU_ALU/mult_37/ab\[6\]\[1\]
*633 DATAPATH_I/EX_STAGE/EXU_ALU/mult_37/ab\[6\]\[0\]
*634 DATAPATH_I/EX_STAGE/EXU_ALU/mult_37/ab\[5\]\[10\]
*635 DATAPATH_I/EX_STAGE/EXU_ALU/mult_37/ab\[5\]\[9\]
*636 DATAPATH_I/EX_STAGE/EXU_ALU/mult_37/ab\[5\]\[8\]
*637 DATAPATH_I/EX_STAGE/EXU_ALU/mult_37/ab\[5\]\[7\]
*638 DATAPATH_I/EX_STAGE/EXU_ALU/mult_37/ab\[5\]\[6\]
*639 DATAPATH_I/EX_STAGE/EXU_ALU/mult_37/ab\[5\]\[5\]
*640 DATAPATH_I/EX_STAGE/EXU_ALU/mult_37/ab\[5\]\[4\]
*641 DATAPATH_I/EX_STAGE/EXU_ALU/mult_37/ab\[5\]\[3\]
*642 DATAPATH_I/EX_STAGE/EXU_ALU/mult_37/ab\[5\]\[2\]
*643 DATAPATH_I/EX_STAGE/EXU_ALU/mult_37/ab\[5\]\[1\]
*644 DATAPATH_I/EX_STAGE/EXU_ALU/mult_37/ab\[5\]\[0\]
*645 DATAPATH_I/EX_STAGE/EXU_ALU/mult_37/ab\[4\]\[11\]
*646 DATAPATH_I/EX_STAGE/EXU_ALU/mult_37/ab\[4\]\[10\]
*647 DATAPATH_I/EX_STAGE/EXU_ALU/mult_37/ab\[4\]\[9\]
*648 DATAPATH_I/EX_STAGE/EXU_ALU/mult_37/ab\[4\]\[8\]
*649 DATAPATH_I/EX_STAGE/EXU_ALU/mult_37/ab\[4\]\[7\]
*650 DATAPATH_I/EX_STAGE/EXU_ALU/mult_37/ab\[4\]\[6\]
*651 DATAPATH_I/EX_STAGE/EXU_ALU/mult_37/ab\[4\]\[5\]
*652 DATAPATH_I/EX_STAGE/EXU_ALU/mult_37/ab\[4\]\[4\]
*653 DATAPATH_I/EX_STAGE/EXU_ALU/mult_37/ab\[4\]\[3\]
*654 DATAPATH_I/EX_STAGE/EXU_ALU/mult_37/ab\[4\]\[2\]
*655 DATAPATH_I/EX_STAGE/EXU_ALU/mult_37/ab\[4\]\[1\]
*656 DATAPATH_I/EX_STAGE/EXU_ALU/mult_37/ab\[4\]\[0\]
*657 DATAPATH_I/EX_STAGE/EXU_ALU/mult_37/ab\[3\]\[12\]
*658 DATAPATH_I/EX_STAGE/EXU_ALU/mult_37/ab\[3\]\[11\]
*659 DATAPATH_I/EX_STAGE/EXU_ALU/mult_37/ab\[3\]\[10\]
*660 DATAPATH_I/EX_STAGE/EXU_ALU/mult_37/ab\[3\]\[9\]
*661 DATAPATH_I/EX_STAGE/EXU_ALU/mult_37/ab\[3\]\[8\]
*662 DATAPATH_I/EX_STAGE/EXU_ALU/mult_37/ab\[3\]\[7\]
*663 DATAPATH_I/EX_STAGE/EXU_ALU/mult_37/ab\[3\]\[6\]
*664 DATAPATH_I/EX_STAGE/EXU_ALU/mult_37/ab\[3\]\[5\]
*665 DATAPATH_I/EX_STAGE/EXU_ALU/mult_37/ab\[3\]\[4\]
*666 DATAPATH_I/EX_STAGE/EXU_ALU/mult_37/ab\[3\]\[3\]
*667 DATAPATH_I/EX_STAGE/EXU_ALU/mult_37/ab\[3\]\[2\]
*668 DATAPATH_I/EX_STAGE/EXU_ALU/mult_37/ab\[3\]\[1\]
*669 DATAPATH_I/EX_STAGE/EXU_ALU/mult_37/ab\[3\]\[0\]
*670 DATAPATH_I/EX_STAGE/EXU_ALU/mult_37/ab\[2\]\[13\]
*671 DATAPATH_I/EX_STAGE/EXU_ALU/mult_37/ab\[2\]\[12\]
*672 DATAPATH_I/EX_STAGE/EXU_ALU/mult_37/ab\[2\]\[11\]
*673 DATAPATH_I/EX_STAGE/EXU_ALU/mult_37/ab\[2\]\[10\]
*674 DATAPATH_I/EX_STAGE/EXU_ALU/mult_37/ab\[2\]\[9\]
*675 DATAPATH_I/EX_STAGE/EXU_ALU/mult_37/ab\[2\]\[8\]
*676 DATAPATH_I/EX_STAGE/EXU_ALU/mult_37/ab\[2\]\[7\]
*677 DATAPATH_I/EX_STAGE/EXU_ALU/mult_37/ab\[2\]\[6\]
*678 DATAPATH_I/EX_STAGE/EXU_ALU/mult_37/ab\[2\]\[5\]
*679 DATAPATH_I/EX_STAGE/EXU_ALU/mult_37/ab\[2\]\[4\]
*680 DATAPATH_I/EX_STAGE/EXU_ALU/mult_37/ab\[2\]\[3\]
*681 DATAPATH_I/EX_STAGE/EXU_ALU/mult_37/ab\[2\]\[2\]
*682 DATAPATH_I/EX_STAGE/EXU_ALU/mult_37/ab\[2\]\[1\]
*683 DATAPATH_I/EX_STAGE/EXU_ALU/mult_37/ab\[2\]\[0\]
*684 DATAPATH_I/EX_STAGE/EXU_ALU/mult_37/ab\[1\]\[14\]
*685 DATAPATH_I/EX_STAGE/EXU_ALU/mult_37/ab\[1\]\[13\]
*686 DATAPATH_I/EX_STAGE/EXU_ALU/mult_37/ab\[1\]\[12\]
*687 DATAPATH_I/EX_STAGE/EXU_ALU/mult_37/ab\[1\]\[11\]
*688 DATAPATH_I/EX_STAGE/EXU_ALU/mult_37/ab\[1\]\[10\]
*689 DATAPATH_I/EX_STAGE/EXU_ALU/mult_37/ab\[1\]\[9\]